/////////////////////////////////////////////
// BEGIN
/////////////////////////////////////////////



clock {
	timezone EST+8EDT;
	timestamp '2000-01-01 0:00:00';
	stoptime '2000-01-01 0:00:01';
}

module powerflow;


// object voltdump {
//     filename voltage.csv;
// 	mode RECT;
// }

// object group_recorder {
// 	group "class=triplex_node";
//     property voltage_1;
//     file triplex_voltage1s.csv;
// }

// object group_recorder {
// 	group "class=triplex_node";
//     property voltage_2;
//     file triplex_voltage2s.csv;
// }

object triplex_line_configuration:1 {
	conductor_1 triplex_1/0 AA;
	conductor_2 triplex_1/0 AA;
	conductor_N triplex_1/0 AA;
	insulation_thickness 0.08;
	diameter 0.368;
}

object triplex_line_conductor: {
	name triplex_1/0 AA;
	resistance 0.97;
	geometric_mean_radius 0.111;
}

object node {
    name R1-12-47-1_node_3;
    phases "C";
    voltage_C -3599.779+6235.000j;
    nominal_voltage 7200;
    bustype SWING;
}

object transformer:3687 {
	name R1-12-47-1_xfmr_556;
	phases CS;
	from R1-12-47-1_node_3;
	to R1-12-47-1_tn_556;
	configuration transformer_configuration:3115;
}

object transformer_configuration:3115 {
	connect_type SINGLE_PHASE_CENTER_TAPPED;
	install_type POLETOP;
	primary_voltage 7200 V;
	secondary_voltage 240 V;
	power_rating 50;
	powerC_rating 50;
	resistance 0.011;
	reactance 0.018;
}

object triplex_node:1226 {
	name R1-12-47-1_tn_556;
	phases CS;
    power_1 2300+1200j;
    power_2 2300+1200j;
    // power_12 21.25+13.169567j; // 25kVA at 0.85 lagging pf = (25 * 0.85, 25 * sin(cos-1(0.85)))
	nominal_voltage 120;
}


///////////////////////////////
// END
///////////////////////////////


object voltdump {
     filename result.csv;
     mode RECT;
}
