// $Id: R1-12.47-2.glm 
// 12.47 kV feeder 
//********************************************* 
clock{ 
     timezone EST+8EDT;
     timestamp '2000-01-01 0:00:00'; 
     stoptime '2000-01-01 0:00:01'; 
 
} 

#set profiler=1 
//********************************************* 
// modules 
module tape; 
module powerflow{ 
     solver_method NR; 
      default_maximum_voltage_error 1e-6;
}; 

// object voltdump {
//     filename voltage.csv;
// 	mode RECT;
// }

// object group_recorder {
// 	group "class=triplex_node";
//     property voltage_1;
//     file triplex_voltage1s.csv;
// }

// object group_recorder {
// 	group "class=triplex_node";
//     property voltage_2;
//     file triplex_voltage2s.csv;
// }

//********************************************* 
object regulator:2078 { 
     name reg_1; 
     from node_338; 
     to meter_14; 
     phases ABCN; 
     configuration feeder_reg_cfg; 
}  

object regulator_configuration:2079 { 
     name feeder_reg_cfg; 
     connect_type WYE_WYE; 
     Control OUTPUT_VOLTAGE; 
     band_center 7500; 
     band_width 120; 
     time_delay 30; 
     raise_taps 16; 
     lower_taps 16; 
     regulation 0.10; 
     tap_pos_A 0; 
     tap_pos_B 0; 
     tap_pos_C 0; 
} 

object capacitor:2076 { 
     name cap_1; 
     phases ABCN; 
     pt_phase A; 
     parent node_54; 
     phases_connected ABC; 
     control VOLT; 
     voltage_set_high 7300; 
     voltage_set_low 7100; 
     capacitor_A 0.15 MVAr; 
     capacitor_B 0.15 MVAr; 
     capacitor_C 0.15 MVAr; 
     control_level INDIVIDUAL; 
	 switchA CLOSED;
     switchB CLOSED;
     switchC CLOSED;
     time_delay 30.0; 
     dwell_time 30.0; 
     cap_nominal_voltage 7200; 
     nominal_voltage 7200; 
} 

object fuse:1988 { 
     name fuse_1; 
     phases ABCN; 
     from node_4; 
     to node_5; 
     current_limit 50000;// 80; 
     status CLOSED; 
} 

object fuse:1989 { 
     name fuse_2; 
     phases ABCN; 
     from node_5; 
     to node_6; 
     current_limit 50000;// 40; 
     status CLOSED; 
} 

object fuse:1990 { 
     name fuse_3; 
     phases AN; 
     from node_7; 
     to node_8; 
     current_limit 50000;// 40; 
     status CLOSED; 
} 

object fuse:1991 { 
     name fuse_4; 
     phases AN; 
     from node_10; 
     to node_11; 
     current_limit 50000;// 30; 
     status CLOSED; 
} 

object fuse:1992 { 
     name fuse_5; 
     phases AN; 
     from node_12; 
     to node_13; 
     current_limit 50000;// 30; 
     status CLOSED; 
} 

object fuse:1993 { 
     name fuse_6; 
     phases CN; 
     from node_18; 
     to node_19; 
     current_limit 50000;// 10; 
     status CLOSED; 
} 

object fuse:1994 { 
     name fuse_7; 
     phases BN; 
     from node_21; 
     to node_22; 
     current_limit 50000;// 10; 
     status CLOSED; 
} 

object fuse:1995 { 
     name fuse_8; 
     phases AN; 
     from node_24; 
     to node_25; 
     current_limit 50000;// 10; 
     status CLOSED; 
} 

object fuse:1996 { 
     name fuse_9; 
     phases BCN; 
     from node_28; 
     to node_29; 
     current_limit 50000;// 80; 
     status CLOSED; 
} 

object fuse:1997 { 
     name fuse_10; 
     phases BN; 
     from node_33; 
     to node_34; 
     current_limit 50000;// 30; 
     status CLOSED; 
} 

object fuse:1998 { 
     name fuse_11; 
     phases CN; 
     from node_33; 
     to node_35; 
     current_limit 50000;// 30; 
     status CLOSED; 
} 

object fuse:1999 { 
     name fuse_12; 
     phases CN; 
     from node_36; 
     to node_37; 
     current_limit 50000;// 10; 
     status CLOSED; 
} 

object fuse:2000 { 
     name fuse_13; 
     phases CN; 
     from node_39; 
     to node_40; 
     current_limit 50000;// 10; 
     status CLOSED; 
} 

object fuse:2001 { 
     name fuse_14; 
     phases CN; 
     from node_41; 
     to node_43; 
     current_limit 50000;// 10; 
     status CLOSED; 
} 

object fuse:2002 { 
     name fuse_15; 
     phases CN; 
     from node_42; 
     to node_44; 
     current_limit 50000;// 10; 
     status CLOSED; 
} 

object fuse:2003 { 
     name fuse_16; 
     phases CN; 
     from node_45; 
     to node_46; 
     current_limit 50000;// 10; 
     status CLOSED; 
} 

object fuse:2004 { 
     name fuse_17; 
     phases CN; 
     from node_49; 
     to node_50; 
     current_limit 50000;// 10; 
     status CLOSED; 
} 

object fuse:2005 { 
     name fuse_18; 
     phases CN; 
     from node_51; 
     to node_52; 
     current_limit 50000;// 10; 
     status CLOSED; 
} 

object fuse:2006 { 
     name fuse_19; 
     phases CN; 
     from node_51; 
     to node_53; 
     current_limit 50000;// 10; 
     status CLOSED; 
} 

object fuse:2007 { 
     name fuse_20; 
     phases BN; 
     from node_57; 
     to node_58; 
     current_limit 50000;// 65; 
     status CLOSED; 
} 

object fuse:2008 { 
     name fuse_21; 
     phases BN; 
     from node_61; 
     to node_62; 
     current_limit 50000;// 10; 
     status CLOSED; 
} 

object fuse:2009 { 
     name fuse_22; 
     phases BN; 
     from node_67; 
     to node_68; 
     current_limit 50000;// 10; 
     status CLOSED; 
} 

object fuse:2010 { 
     name fuse_23; 
     phases BN; 
     from node_73; 
     to node_74; 
     current_limit 50000;// 10; 
     status CLOSED; 
} 

object fuse:2011 { 
     name fuse_24; 
     phases BN; 
     from node_75; 
     to node_76; 
     current_limit 50000;// 10; 
     status CLOSED; 
} 

object fuse:2012 { 
     name fuse_25; 
     phases BN; 
     from node_78; 
     to node_79; 
     current_limit 50000;// 10; 
     status CLOSED; 
} 

object fuse:2013 { 
     name fuse_26; 
     phases BN; 
     from node_81; 
     to node_82; 
     current_limit 50000;// 10; 
     status CLOSED; 
} 

object fuse:2014 { 
     name fuse_27; 
     phases BN; 
     from node_81; 
     to node_83; 
     current_limit 50000;// 10; 
     status CLOSED; 
} 

object fuse:2015 { 
     name fuse_28; 
     phases BN; 
     from node_84; 
     to node_85; 
     current_limit 50000;// 40; 
     status CLOSED; 
} 

object fuse:2016 { 
     name fuse_29; 
     phases BN; 
     from node_85; 
     to node_86; 
     current_limit 50000;// 25; 
     status CLOSED; 
} 

object fuse:2017 { 
     name fuse_30; 
     phases BN; 
     from node_89; 
     to node_90; 
     current_limit 50000;// 15; 
     status CLOSED; 
} 

object fuse:2018 { 
     name fuse_31; 
     phases BN; 
     from node_93; 
     to node_95; 
     current_limit 50000;// 10; 
     status CLOSED; 
} 

object fuse:2019 { 
     name fuse_32; 
     phases BN; 
     from node_85; 
     to node_96; 
     current_limit 50000;// 10; 
     status CLOSED; 
} 

object fuse:2020 { 
     name fuse_33; 
     phases BN; 
     from node_97; 
     to node_336; 
     current_limit 50000;// 20; 
     status CLOSED; 
} 

object fuse:2021 { 
     name fuse_34; 
     phases BN; 
     from node_100; 
     to node_102; 
     current_limit 50000;// 10; 
     status CLOSED; 
} 

object fuse:2022 { 
     name fuse_35; 
     phases BN; 
     from node_101; 
     to node_103; 
     current_limit 50000;// 10; 
     status CLOSED; 
} 

object fuse:2023 { 
     name fuse_36; 
     phases BN; 
     from node_99; 
     to node_105; 
     current_limit 50000;// 10; 
     status CLOSED; 
} 

object fuse:2024 { 
     name fuse_37; 
     phases BN; 
     from node_336; 
     to node_337; 
     current_limit 50000;// 10; 
     status CLOSED; 
} 

object fuse:2025 { 
     name fuse_38; 
     phases BN; 
     from node_107; 
     to node_108; 
     current_limit 50000;// 10; 
     status CLOSED; 
} 

object fuse:2026 { 
     name fuse_39; 
     phases BN; 
     from node_109; 
     to node_110; 
     current_limit 50000;// 10; 
     status CLOSED; 
} 

object fuse:2027 { 
     name fuse_40; 
     phases ABCN; 
     from node_57; 
     to node_111; 
     current_limit 50000;// 120; 
     status CLOSED; 
} 

object fuse:2028 { 
     name fuse_41; 
     phases AN; 
     from node_112; 
     to node_113; 
     current_limit 50000;// 10; 
     status CLOSED; 
} 

object fuse:2029 { 
     name fuse_42; 
     phases AN; 
     from node_114; 
     to node_115; 
     current_limit 50000;// 10; 
     status CLOSED; 
} 

object fuse:2030 { 
     name fuse_43; 
     phases BN; 
     from node_116; 
     to node_323; 
     current_limit 50000;// 30; 
     status CLOSED; 
} 

object fuse:2031 { 
     name fuse_44; 
     phases ABN; 
     from node_118; 
     to node_119; 
     current_limit 50000;// 85; 
     status CLOSED; 
} 

object fuse:2032 { 
     name fuse_45; 
     phases BN; 
     from node_122; 
     to node_123; 
     current_limit 50000;// 10; 
     status CLOSED; 
} 

object fuse:2033 { 
     name fuse_46; 
     phases AN; 
     from node_129; 
     to node_128; 
     current_limit 50000;// 15; 
     status CLOSED; 
} 

object fuse:2034 { 
     name fuse_47; 
     phases AN; 
     from node_133; 
     to node_135; 
     current_limit 50000;// 10; 
     status CLOSED; 
} 

object fuse:2035 { 
     name fuse_48; 
     phases AN; 
     from node_139; 
     to node_140; 
     current_limit 50000;// 10; 
     status CLOSED; 
} 

object fuse:2036 { 
     name fuse_49; 
     phases AN; 
     from node_126; 
     to node_141; 
     current_limit 50000;// 40; 
     status CLOSED; 
} 

object fuse:2037 { 
     name fuse_50; 
     phases AN; 
     from node_141; 
     to node_142; 
     current_limit 50000;// 10; 
     status CLOSED; 
} 

object fuse:2038 { 
     name fuse_51; 
     phases AN; 
     from node_144; 
     to node_145; 
     current_limit 50000;// 10; 
     status CLOSED; 
} 

object fuse:2039 { 
     name fuse_52; 
     phases AN; 
     from node_148; 
     to node_308; 
     current_limit 50000;// 10; 
     status CLOSED; 
} 

object fuse:2040 { 
     name fuse_53; 
     phases AN; 
     from node_148; 
     to node_150; 
     current_limit 50000;// 25; 
     status CLOSED; 
} 

object fuse:2041 { 
     name fuse_54; 
     phases CN; 
     from node_118; 
     to node_164; 
     current_limit 50000;// 50; 
     status CLOSED; 
} 

object fuse:2042 { 
     name fuse_55; 
     phases CN; 
     from node_164; 
     to node_165; 
     current_limit 50000;// 10; 
     status CLOSED; 
} 

object fuse:2043 { 
     name fuse_56; 
     phases CN; 
     from node_166; 
     to node_168; 
     current_limit 50000;// 30; 
     status CLOSED; 
} 

object fuse:2044 { 
     name fuse_57; 
     phases BN; 
     from node_184; 
     to node_334; 
     current_limit 50000;// 10; 
     status CLOSED; 
} 

object fuse:2045 { 
     name fuse_58; 
     phases CN; 
     from node_185; 
     to node_186; 
     current_limit 50000;// 10; 
     status CLOSED; 
} 

object fuse:2046 { 
     name fuse_59; 
     phases CN; 
     from node_187; 
     to node_188; 
     current_limit 50000;// 10; 
     status CLOSED; 
} 

object fuse:2047 { 
     name fuse_60; 
     phases CN; 
     from node_189; 
     to node_190; 
     current_limit 50000;// 30; 
     status CLOSED; 
} 

object fuse:2048 { 
     name fuse_61; 
     phases BN; 
     from node_208; 
     to node_209; 
     current_limit 50000;// 10; 
     status CLOSED; 
} 

object fuse:2049 { 
     name fuse_62; 
     phases CN; 
     from node_210; 
     to node_211; 
     current_limit 50000;// 15; 
     status CLOSED; 
} 

object fuse:2050 { 
     name fuse_63; 
     phases BCN; 
     from node_215; 
     to node_216; 
     current_limit 50000;// 10; 
     status CLOSED; 
} 

object fuse:2051 { 
     name fuse_64; 
     phases CN; 
     from node_217; 
     to node_335; 
     current_limit 50000;// 10; 
     status CLOSED; 
} 

object fuse:2052 { 
     name fuse_65; 
     phases BCN; 
     from node_217; 
     to node_320; 
     current_limit 50000;// 30; 
     status CLOSED; 
} 

object fuse:2053 { 
     name fuse_66; 
     phases BN; 
     from node_222; 
     to node_223; 
     current_limit 50000;// 40; 
     status CLOSED; 
} 

object fuse:2054 { 
     name fuse_67; 
     phases BN; 
     from node_232; 
     to node_233; 
     current_limit 50000;// 10; 
     status CLOSED; 
} 

object fuse:2055 { 
     name fuse_68; 
     phases BN; 
     from node_235; 
     to node_236; 
     current_limit 50000;// 10; 
     status CLOSED; 
} 

object fuse:2056 { 
     name fuse_69; 
     phases CN; 
     from node_238; 
     to node_239; 
     current_limit 50000;// 10; 
     status CLOSED; 
} 

object fuse:2057 { 
     name fuse_70; 
     phases CN; 
     from node_238; 
     to node_240; 
     current_limit 50000;// 10; 
     status CLOSED; 
} 

object fuse:2058 { 
     name fuse_71; 
     phases CN; 
     from node_242; 
     to node_243; 
     current_limit 50000;// 30; 
     status CLOSED; 
} 

object fuse:2059 { 
     name fuse_72; 
     phases CN; 
     from node_251; 
     to node_252; 
     current_limit 50000;// 10; 
     status CLOSED; 
} 

object fuse:2060 { 
     name fuse_73; 
     phases BN; 
     from node_254; 
     to node_255; 
     current_limit 50000;// 10; 
     status CLOSED; 
} 

object fuse:2061 { 
     name fuse_74; 
     phases BN; 
     from node_259; 
     to node_310; 
     current_limit 50000;// 15; 
     status CLOSED; 
} 

object fuse:2062 { 
     name fuse_75; 
     phases CN; 
     from node_265; 
     to node_266; 
     current_limit 50000;// 10; 
     status CLOSED; 
} 

object fuse:2063 { 
     name fuse_76; 
     phases CN; 
     from node_267; 
     to node_268; 
     current_limit 50000;// 10; 
     status CLOSED; 
} 

object fuse:2064 { 
     name fuse_77; 
     phases BN; 
     from node_272; 
     to node_273; 
     current_limit 50000;// 30; 
     status CLOSED; 
} 

object fuse:2065 { 
     name fuse_78; 
     phases BN; 
     from node_273; 
     to node_275; 
     current_limit 50000;// 20; 
     status CLOSED; 
} 

object fuse:2066 { 
     name fuse_79; 
     phases BN; 
     from node_275; 
     to node_276; 
     current_limit 50000;// 25; 
     status CLOSED; 
} 

object fuse:2067 { 
     name fuse_80; 
     phases BN; 
     from node_117; 
     to node_307; 
     current_limit 50000;// 10; 
     status CLOSED; 
} 

object fuse:2068 { 
     name fuse_81; 
     phases BN; 
     from node_315; 
     to node_316; 
     current_limit 50000;// 10; 
     status CLOSED; 
} 

object fuse:2069 { 
     name fuse_82; 
     phases BN; 
     from node_106; 
     to node_318; 
     current_limit 50000;// 10; 
     status CLOSED; 
} 

object fuse:2070 { 
     name fuse_83; 
     phases BN; 
     from node_320; 
     to node_321; 
     current_limit 50000;// 10; 
     status CLOSED; 
} 

object fuse:2071 { 
     name fuse_84; 
     phases AN; 
     from node_329; 
     to node_331; 
     current_limit 50000;// 10; 
     status CLOSED; 
} 

object line_configuration:21 { 
     conductor_A underground_line_conductor:2; 
     conductor_B underground_line_conductor:2; 
     conductor_C underground_line_conductor:2; 
     conductor_N underground_line_conductor:2; 
     spacing line_spacing:10; 
} 

object line_configuration:22 { 
     conductor_A overhead_line_conductor:3; 
     conductor_B overhead_line_conductor:3; 
     conductor_C overhead_line_conductor:3; 
     conductor_N overhead_line_conductor:3; 
     spacing line_spacing:11; 
} 

object line_configuration:23 { 
     conductor_A overhead_line_conductor:4; 
     conductor_B overhead_line_conductor:4; 
     conductor_C overhead_line_conductor:4; 
     conductor_N overhead_line_conductor:4; 
     spacing line_spacing:11; 
} 

object line_configuration:24 { 
     conductor_A underground_line_conductor:5; 
     conductor_B underground_line_conductor:5; 
     conductor_C underground_line_conductor:5; 
     conductor_N underground_line_conductor:5; 
     spacing line_spacing:10; 
} 

object line_configuration:25 { 
     conductor_A overhead_line_conductor:4; 
     conductor_N overhead_line_conductor:4; 
     spacing line_spacing:12; 
} 

object line_configuration:26 { 
     conductor_A underground_line_conductor:5; 
     conductor_N underground_line_conductor:5; 
     spacing line_spacing:13; 
} 

object line_configuration:27 { 
     conductor_A overhead_line_conductor:3; 
     conductor_B overhead_line_conductor:3; 
     conductor_C overhead_line_conductor:3; 
     conductor_N overhead_line_conductor:3; 
     spacing line_spacing:11; 
} 

object line_configuration:28 { 
     conductor_C overhead_line_conductor:4; 
     conductor_N overhead_line_conductor:4; 
     spacing line_spacing:14; 
} 

object line_configuration:29 { 
     conductor_C overhead_line_conductor:6; 
     conductor_N overhead_line_conductor:6; 
     spacing line_spacing:14; 
} 

object line_configuration:30 { 
     conductor_B overhead_line_conductor:6; 
     conductor_N overhead_line_conductor:6; 
     spacing line_spacing:15; 
} 

object line_configuration:31 { 
     conductor_B overhead_line_conductor:4; 
     conductor_N overhead_line_conductor:4; 
     spacing line_spacing:15; 
} 

object line_configuration:32 { 
     conductor_A overhead_line_conductor:7; 
     conductor_N overhead_line_conductor:7; 
     spacing line_spacing:12; 
} 

object line_configuration:33 { 
     conductor_B overhead_line_conductor:6; 
     conductor_C overhead_line_conductor:6; 
     conductor_N overhead_line_conductor:6; 
     spacing line_spacing:16; 
} 

object line_configuration:34 { 
     conductor_C overhead_line_conductor:4; 
     conductor_N overhead_line_conductor:4; 
     spacing line_spacing:14; 
} 

object line_configuration:35 { 
     conductor_B overhead_line_conductor:4; 
     conductor_C overhead_line_conductor:4; 
     conductor_N overhead_line_conductor:4; 
     spacing line_spacing:16; 
} 

object line_configuration:36 { 
     conductor_B underground_line_conductor:5; 
     conductor_N underground_line_conductor:5; 
     spacing line_spacing:17; 
} 

object line_configuration:37 { 
     conductor_C underground_line_conductor:5; 
     conductor_N underground_line_conductor:5; 
     spacing line_spacing:18; 
} 

object line_configuration:38 { 
     conductor_C overhead_line_conductor:8; 
     conductor_N overhead_line_conductor:8; 
     spacing line_spacing:14; 
} 

object line_configuration:39 { 
     conductor_A overhead_line_conductor:3; 
     conductor_B overhead_line_conductor:3; 
     conductor_C overhead_line_conductor:3; 
     conductor_N overhead_line_conductor:3; 
     spacing line_spacing:11; 
} 

object line_configuration:40 { 
     conductor_A overhead_line_conductor:9; 
     conductor_B overhead_line_conductor:9; 
     conductor_C overhead_line_conductor:9; 
     conductor_N overhead_line_conductor:9; 
     spacing line_spacing:11; 
} 

object line_configuration:41 { 
     conductor_B overhead_line_conductor:8; 
     conductor_N overhead_line_conductor:8; 
     spacing line_spacing:15; 
} 

object line_configuration:42 { 
     conductor_B underground_line_conductor:5; 
     conductor_N underground_line_conductor:5; 
     spacing line_spacing:15; 
} 

object line_configuration:43 { 
     conductor_A overhead_line_conductor:9; 
     conductor_B overhead_line_conductor:9; 
     conductor_C overhead_line_conductor:9; 
     conductor_N overhead_line_conductor:9; 
     spacing line_spacing:11; 
} 

object line_configuration:44 { 
     conductor_A overhead_line_conductor:6; 
     conductor_N overhead_line_conductor:6; 
     spacing line_spacing:12; 
} 

object line_configuration:45 { 
     conductor_A overhead_line_conductor:6; 
     conductor_B overhead_line_conductor:6; 
     conductor_N overhead_line_conductor:6; 
     spacing line_spacing:19; 
} 

object line_configuration:46 { 
     conductor_A overhead_line_conductor:7; 
     conductor_B overhead_line_conductor:7; 
     conductor_N overhead_line_conductor:7; 
     spacing line_spacing:19; 
} 

object line_configuration:47 { 
     conductor_A overhead_line_conductor:6; 
     conductor_B overhead_line_conductor:6; 
     conductor_N overhead_line_conductor:6; 
     spacing line_spacing:19; 
} 

object line_configuration:48 { 
     conductor_B underground_line_conductor:5; 
     conductor_C underground_line_conductor:5; 
     conductor_N underground_line_conductor:5; 
     spacing line_spacing:20; 
} 

object line_configuration:49 { 
     conductor_A underground_line_conductor:5; 
     conductor_N underground_line_conductor:5; 
     spacing line_spacing:12; 
} 

object line_spacing:10 { 
     distance_AB 0.0 in; 
     distance_BC 0.0 in; 
     distance_AC 0.0 in; 
     distance_AN 0.0 in; 
     distance_BN 0.0 in; 
     distance_CN 0.0 in; 
} 

object line_spacing:11 { 
     distance_AB 57.6 in; 
     distance_BC 57.6 in; 
     distance_AC 57.6 in; 
     distance_AN 84.0 in; 
     distance_BN 84.0 in; 
     distance_CN 84.0 in; 
} 

object line_spacing:12 { 
     distance_AN 84.0 in; 
} 

object line_spacing:13 { 
     distance_AN 0.0 in; 
} 

object line_spacing:14 { 
     distance_CN 84.0 in; 
} 

object line_spacing:15 { 
     distance_BN 84.0 in; 
} 

object line_spacing:16 { 
     distance_BC 57.6 in; 
     distance_BN 84.0 in; 
     distance_CN 84.0 in; 
} 

object line_spacing:17 { 
     distance_BN 0.0 in; 
} 

object line_spacing:18 { 
     distance_CN 0.0 in; 
} 

object line_spacing:19 { 
     distance_AB 57.6 in; 
     distance_AN 84.0 in; 
     distance_BN 84.0 in; 
} 

object line_spacing:20 { 
     distance_BC 0.0 in; 
     distance_BN 0.0 in; 
     distance_CN 0.0 in; 
} 

object load:387 { 
     name load_1; 
     parent meter_1; 
     phases ABCN; 
     voltage_A 7200+0.0j; 
     voltage_B -3600-6235j; 
     voltage_C -3600+6235j; 
     constant_power_A 0+0j; 
     constant_power_B 0+0j; 
     constant_power_C 7585.7348+93.6417j; 
     nominal_voltage 480; 
     load_class C; 
} 

object load:388 { 
     name load_2; 
     parent meter_2; 
     phases ABCN; 
     voltage_A 7200+0.0j; 
     voltage_B -3600-6235j; 
     voltage_C -3600+6235j; 
     constant_power_A 82333+50j; 
     constant_power_B 82333+50j; 
     constant_power_C 82334+50j; 
     nominal_voltage 480; 
     load_class C; 
} 

object load:389 { 
     name load_3; 
     parent meter_3; 
     phases ABCN; 
     voltage_A 7200+0.0j; 
     voltage_B -3600-6235j; 
     voltage_C -3600+6235j; 
     constant_power_A 15564.4725+222.4254j; 
     constant_power_B 11118.2659+338.5019j; 
     constant_power_C 25285.7827+312.1391j; 
     nominal_voltage 480; 
     load_class C; 
} 

object load:390 { 
     name load_4; 
     parent meter_4; 
     phases AN; 
     voltage_A 7200+0.0j; 
     constant_power_A 15564.4725+222.4254j; 
     nominal_voltage 480; 
     load_class C; 
} 

object load:391 { 
     name load_5; 
     parent meter_5; 
     phases AN; 
     voltage_A 7200+0.0j; 
     constant_power_A 38911.1812+556.0636j; 
     nominal_voltage 480; 
     load_class C; 
} 

object load:392 { 
     name load_6; 
     parent meter_6; 
     phases AN; 
     voltage_A 7200+0.0j; 
     constant_power_A 11673.3544+166.8191j; 
     nominal_voltage 480; 
     load_class C; 
} 

object load:393 { 
     name load_7; 
     parent meter_7; 
     phases AN; 
     voltage_A 7200+0.0j; 
     constant_power_A 15564.4725+222.4254j; 
     nominal_voltage 480; 
     load_class C; 
} 

object load:394 { 
     name load_8; 
     parent meter_8; 
     phases BN; 
     voltage_B -3600-6235j; 
     constant_power_B 3335.4798+101.5506j; 
     nominal_voltage 480; 
     load_class C; 
} 

object load:395 { 
     name load_9; 
     parent meter_9; 
     phases BN; 
     voltage_B -3600-6235j; 
     constant_power_B 11118.2659+338.5019j; 
     nominal_voltage 480; 
     load_class C; 
} 

object load:396 { 
     name load_10; 
     parent meter_10; 
     phases ABCN; 
     voltage_A 7200+0.0j; 
     voltage_B -3600-6235j; 
     voltage_C -3600+6235j; 
     constant_power_A 4669.3417+66.7276j; 
     constant_power_B 3335.4798+101.5506j; 
     constant_power_C 0+0j; 
     nominal_voltage 480; 
     load_class C; 
} 

object load:397 { 
     name load_11; 
     parent meter_11; 
     phases AN; 
     voltage_A 7200+0.0j; 
     constant_power_A 15564.4725+222.4254j; 
     nominal_voltage 480; 
     load_class C; 
} 

object load:398 { 
     name load_12; 
     parent meter_12; 
     phases AN; 
     voltage_A 7200+0.0j; 
     constant_power_A 4669.3417+66.7276j; 
     nominal_voltage 480; 
     load_class C; 
} 

object load:399 { 
     name load_13; 
     parent meter_13; 
     phases AN; 
     voltage_A 7200+0.0j; 
     constant_power_A 7782.2362+111.2127j; 
     nominal_voltage 480; 
     load_class C; 
} 

object meter:1153 { 
     name meter_1; 
     phases ABCN; 
     nominal_voltage 480; 
} 

object meter:1154 { 
     name meter_2; 
     phases ABCN; 
     nominal_voltage 480; 
} 

object meter:1155 { 
     name meter_3; 
     phases ABCN; 
     nominal_voltage 480; 
} 

object meter:1156 { 
     name meter_4; 
     phases AN; 
     nominal_voltage 480; 
} 

object meter:1157 { 
     name meter_5; 
     phases AN; 
     nominal_voltage 480; 
} 

object meter:1158 { 
     name meter_6; 
     phases AN; 
     nominal_voltage 480; 
} 

object meter:1159 { 
     name meter_7; 
     phases AN; 
     nominal_voltage 480; 
} 

object meter:1160 { 
     name meter_8; 
     phases BN; 
     nominal_voltage 480; 
} 

object meter:1161 { 
     name meter_9; 
     phases BN; 
     nominal_voltage 480; 
} 

object meter:1162 { 
     name meter_10; 
     phases ABCN; 
     nominal_voltage 480; 
} 

object meter:1163 { 
     name meter_11; 
     phases AN; 
     nominal_voltage 480; 
} 

object meter:1164 { 
     name meter_12; 
     phases AN; 
     nominal_voltage 480; 
} 

object meter:1165 { 
     name meter_13; 
     phases AN; 
     nominal_voltage 480; 
} 

// Meter at feeder 
object meter:2077 { 
     name meter_14; 
     phases ABCN; 
     nominal_voltage 480; 
} 

object node:50 { 
     name node_1; 
     phases ABCN; 
     voltage_A 7200+0.0j; 
     voltage_B -3600-6235j; 
     voltage_C -3600+6235j; 
     nominal_voltage 7200; 
} 

object node:51 { 
     name node_2; 
     phases ABCN; 
     voltage_A 7200+0.0j; 
     voltage_B -3600-6235j; 
     voltage_C -3600+6235j; 
     nominal_voltage 7200; 
} 

object node:52 { 
     name node_3; 
     phases ABCN; 
     voltage_A 7200+0.0j; 
     voltage_B -3600-6235j; 
     voltage_C -3600+6235j; 
     nominal_voltage 7200; 
} 

object node:53 { 
     name node_4; 
     phases ABCN; 
     voltage_A 7200+0.0j; 
     voltage_B -3600-6235j; 
     voltage_C -3600+6235j; 
     nominal_voltage 7200; 
} 

object node:54 { 
     name node_5; 
     phases ABCN; 
     voltage_A 7200+0.0j; 
     voltage_B -3600-6235j; 
     voltage_C -3600+6235j; 
     nominal_voltage 7200; 
} 

object node:55 { 
     name node_6; 
     phases ABCN; 
     voltage_A 7200+0.0j; 
     voltage_B -3600-6235j; 
     voltage_C -3600+6235j; 
     nominal_voltage 7200; 
} 

object node:56 { 
     name node_7; 
     phases ABCN; 
     voltage_A 7200+0.0j; 
     voltage_B -3600-6235j; 
     voltage_C -3600+6235j; 
     nominal_voltage 7200; 
} 

object node:57 { 
     name node_8; 
     phases AN; 
     voltage_A 7200+0.0j; 
     nominal_voltage 7200; 
} 

object node:58 { 
     name node_9; 
     phases AN; 
     voltage_A 7200+0.0j; 
     nominal_voltage 7200; 
} 

object node:59 { 
     name node_10; 
     phases AN; 
     voltage_A 7200+0.0j; 
     nominal_voltage 7200; 
} 

object node:60 { 
     name node_11; 
     phases AN; 
     voltage_A 7200+0.0j; 
     nominal_voltage 7200; 
} 

object node:61 { 
     name node_12; 
     phases AN; 
     voltage_A 7200+0.0j; 
     nominal_voltage 7200; 
} 

object node:62 { 
     name node_13; 
     phases AN; 
     voltage_A 7200+0.0j; 
     nominal_voltage 7200; 
} 

object node:63 { 
     name node_14; 
     phases AN; 
     voltage_A 7200+0.0j; 
     nominal_voltage 7200; 
} 

object node:64 { 
     name node_15; 
     phases AN; 
     voltage_A 7200+0.0j; 
     nominal_voltage 7200; 
} 

object node:65 { 
     name node_16; 
     phases AN; 
     voltage_A 7200+0.0j; 
     nominal_voltage 7200; 
} 

object node:66 { 
     name node_17; 
     phases ABCN; 
     voltage_A 7200+0.0j; 
     voltage_B -3600-6235j; 
     voltage_C -3600+6235j; 
     nominal_voltage 7200; 
} 

object node:67 { 
     name node_18; 
     phases ABCN; 
     voltage_A 7200+0.0j; 
     voltage_B -3600-6235j; 
     voltage_C -3600+6235j; 
     nominal_voltage 7200; 
} 

object node:68 { 
     name node_19; 
     phases CN; 
     voltage_C -3600+6235j; 
     nominal_voltage 7200; 
} 

object node:69 { 
     name node_20; 
     phases CN; 
     voltage_C -3600+6235j; 
     nominal_voltage 7200; 
} 

object node:70 { 
     name node_21; 
     phases ABCN; 
     voltage_A 7200+0.0j; 
     voltage_B -3600-6235j; 
     voltage_C -3600+6235j; 
     nominal_voltage 7200; 
} 

object node:71 { 
     name node_22; 
     phases BN; 
     voltage_B -3600-6235j; 
     nominal_voltage 7200; 
} 

object node:72 { 
     name node_23; 
     phases BN; 
     voltage_B -3600-6235j; 
     nominal_voltage 7200; 
} 

object node:73 { 
     name node_24; 
     phases ABCN; 
     voltage_A 7200+0.0j; 
     voltage_B -3600-6235j; 
     voltage_C -3600+6235j; 
     nominal_voltage 7200; 
} 

object node:74 { 
     name node_25; 
     phases AN; 
     voltage_A 7200+0.0j; 
     nominal_voltage 7200; 
} 

object node:75 { 
     name node_26; 
     phases AN; 
     voltage_A 7200+0.0j; 
     nominal_voltage 7200; 
} 

object node:76 { 
     name node_27; 
     phases AN; 
     voltage_A 7200+0.0j; 
     nominal_voltage 7200; 
} 

object node:77 { 
     name node_28; 
     phases ABCN; 
     voltage_A 7200+0.0j; 
     voltage_B -3600-6235j; 
     voltage_C -3600+6235j; 
     nominal_voltage 7200; 
} 

object node:78 { 
     name node_29; 
     phases BCN; 
     voltage_B -3600-6235j; 
     voltage_C -3600+6235j; 
     nominal_voltage 7200; 
} 

object node:79 { 
     name node_30; 
     phases BCN; 
     voltage_B -3600-6235j; 
     voltage_C -3600+6235j; 
     nominal_voltage 7200; 
} 

object node:80 { 
     name node_31; 
     phases CN; 