//Test of future IEEE Network test system.

clock {
	timezone EST+8EDT;
	timestamp '2000-01-01 0:00:00';
	stoptime '2000-01-01 0:00:01';
}

module powerflow {
    solver_method NR;
};

#set profiler=1;
#set relax_naming_rules=1;

module reliability {
	maximum_event_length 18000;	//Maximum length of events in seconds (manual events are excluded from this limit);
	report_event_log false;
}

// Node Objects

object meter {
     name "P1";
     phases ABC;
     nominal_voltage 132790;
     bustype SWING;
}

object node {
     name "P2";
     phases ABC;
     nominal_voltage 132790;
}

object node {
     name "P3";
     phases ABC;
     nominal_voltage 132790;
}

object node {
     name "P4";
     phases ABC;
     nominal_voltage 132790;
}

object node {
     name "P5";
     phases ABC;
     nominal_voltage 8366;
}

object node {
     name "P6";
     phases ABC;
     nominal_voltage 8366;
}

object node {
     name "P7";
     phases ABC;
     nominal_voltage 132790;
}

object node {
     name "P8";
     phases ABC;
     nominal_voltage 132790;
}

object node {
     name "P9";
     phases ABC;
     nominal_voltage 8366;
}

object node {
     name "P10";
     phases ABC;
     nominal_voltage 8366;
}

object node {
     name "P11";
     phases ABC;
     nominal_voltage 8366;
}

object node {
     name "P12";
     phases ABC;
     nominal_voltage 8366;
}

object node {
     name "P13";
     phases ABC;
     nominal_voltage 8366;
}

object node {
     name "P14";
     phases ABC;
     nominal_voltage 8366;
}

object node {
     name "P15";
     phases ABC;
     nominal_voltage 8366;
}

object node {
     name "P16";
     phases ABC;
     nominal_voltage 8366;
}

object node {
     name "P17";
     phases ABC;
     nominal_voltage 8366;
}

object node {
     name "P18";
     phases ABC;
     nominal_voltage 8366;
}

object node {
     name "P19";
     phases ABC;
     nominal_voltage 8366;
}

object node {
     name "P20";
     phases ABC;
     nominal_voltage 8366;
}

object node {
     name "P21";
     phases ABC;
     nominal_voltage 8366;
}

object node {
     name "P22";
     phases ABC;
     nominal_voltage 8366;
}

object node {
     name "P23";
     phases ABC;
     nominal_voltage 8366;
}

object node {
     name "P24";
     phases ABC;
     nominal_voltage 8366;
}

object node {
     name "P25";
     phases ABC;
     nominal_voltage 8366;
}

object node {
     name "P26";
     phases ABC;
     nominal_voltage 8366;
}

object node {
     name "P27";
     phases ABC;
     nominal_voltage 8366;
}

object node {
     name "P28";
     phases ABC;
     nominal_voltage 8366;
}

object node {
     name "P29";
     phases ABC;
     nominal_voltage 8366;
}

object node {
     name "P30";
     phases ABC;
     nominal_voltage 8366;
}

object node {
     name "P31";
     phases ABC;
     nominal_voltage 8366;
}

object node {
     name "P32";
     phases ABC;
     nominal_voltage 8366;
}

object node {
     name "P33";
     phases ABC;
     nominal_voltage 8366;
}

object node {
     name "P34";
     phases ABC;
     nominal_voltage 8366;
}

object node {
     name "P35";
     phases ABC;
     nominal_voltage 8366;
}

object node {
     name "P36";
     phases ABC;
     nominal_voltage 8366;
}

object node {
     name "P37";
     phases ABC;
     nominal_voltage 8366;
}

object node {
     name "P38";
     phases ABC;
     nominal_voltage 8366;
}

object node {
     name "P39";
     phases ABC;
     nominal_voltage 8366;
}

object node {
     name "P40";
     phases ABC;
     nominal_voltage 8366;
}

object node {
     name "P41";
     phases ABC;
     nominal_voltage 8366;
}

object node {
     name "P42";
     phases ABC;
     nominal_voltage 8366;
}

object node {
     name "P43";
     phases ABC;
     nominal_voltage 8366;
}

object node {
     name "P44";
     phases ABC;
     nominal_voltage 8366;
}

object node {
     name "P45";
     phases ABC;
     nominal_voltage 8366;
}

object node {
     name "P46";
     phases ABC;
     nominal_voltage 8366;
}

object node {
     name "P47";
     phases ABC;
     nominal_voltage 8366;
}

object node {
     name "P48";
     phases ABC;
     nominal_voltage 8366;
}

object node {
     name "P49";
     phases ABC;
     nominal_voltage 8366;
}

object node {
     name "P50";
     phases ABC;
     nominal_voltage 8366;
}

object node {
     name "P51";
     phases ABC;
     nominal_voltage 8366;
}

object node {
     name "P52";
     phases ABC;
     nominal_voltage 8366;
}

object node {
     name "P53";
     phases ABC;
     nominal_voltage 8366;
}

object node {
     name "P54";
     phases ABC;
     nominal_voltage 8366;
}

object node {
     name "P55";
     phases ABC;
     nominal_voltage 8366;
}

object node {
     name "P56";
     phases ABC;
     nominal_voltage 8366;
}

object node {
     name "P57";
     phases ABC;
     nominal_voltage 8366;
}

object node {
     name "P58";
     phases ABC;
     nominal_voltage 8366;
}

object node {
     name "P59";
     phases ABC;
     nominal_voltage 8366;
}

object node {
     name "P60";
     phases ABC;
     nominal_voltage 8366;
}

object node {
     name "P61";
     phases ABC;
     nominal_voltage 8366;
}

object node {
     name "P62";
     phases ABC;
     nominal_voltage 8366;
}

object node {
     name "P63";
     phases ABC;
     nominal_voltage 8366;
}

object node {
     name "P64";
     phases ABC;
     nominal_voltage 8366;
}

object node {
     name "P65";
     phases ABC;
     nominal_voltage 8366;
}

object node {
     name "P66";
     phases ABC;
     nominal_voltage 8366;
}

object node {
     name "P67";
     phases ABC;
     nominal_voltage 8366;
}

object node {
     name "P68";
     phases ABC;
     nominal_voltage 8366;
}

object node {
     name "P69";
     phases ABC;
     nominal_voltage 8366;
}

object node {
     name "P70";
     phases ABC;
     nominal_voltage 8366;
}

object node {
     name "P71";
     phases ABC;
     nominal_voltage 8366;
}

object node {
     name "P72";
     phases ABC;
     nominal_voltage 8366;
}

object node {
     name "P73";
     phases ABC;
     nominal_voltage 8366;
}

object node {
     name "P74";
     phases ABC;
     nominal_voltage 8366;
}

object node {
     name "P75";
     phases ABC;
     nominal_voltage 8366;
}

object node {
     name "P76";
     phases ABC;
     nominal_voltage 8366;
}

object node {
     name "P77";
     phases ABC;
     nominal_voltage 8366;
}

object node {
     name "P78";
     phases ABC;
     nominal_voltage 8366;
}

object node {
     name "P79";
     phases ABC;
     nominal_voltage 8366;
}

object node {
     name "P80";
     phases ABC;
     nominal_voltage 8366;
}

object node {
     name "P81";
     phases ABC;
     nominal_voltage 8366;
}

object node {
     name "P82";
     phases ABC;
     nominal_voltage 8366;
}

object node {
     name "P83";
     phases ABC;
     nominal_voltage 8366;
}

object node {
     name "P84";
     phases ABC;
     nominal_voltage 8366;
}

object node {
     name "P85";
     phases ABC;
     nominal_voltage 8366;
}

object node {
     name "P86";
     phases ABC;
     nominal_voltage 8366;
}

object node {
     name "P87";
     phases ABC;
     nominal_voltage 8366;
}

object node {
     name "P88";
     phases ABC;
     nominal_voltage 8366;
}

object node {
     name "P89";
     phases ABC;
     nominal_voltage 8366;
}

object node {
     name "P90";
     phases ABC;
     nominal_voltage 8366;
}

object node {
     name "P91";
     phases ABC;
     nominal_voltage 8366;
}

object node {
     name "P92";
     phases ABC;
     nominal_voltage 8366;
}

object node {
     name "P93";
     phases ABC;
     nominal_voltage 8366;
}

object node {
     name "P94";
     phases ABC;
     nominal_voltage 8366;
}

object node {
     name "P95";
     phases ABC;
     nominal_voltage 8366;
}

object node {
     name "P96";
     phases ABC;
     nominal_voltage 8366;
}

object node {
     name "P97";
     phases ABC;
     nominal_voltage 8366;
}

object node {
     name "P98";
     phases ABC;
     nominal_voltage 8366;
}

object node {
     name "P99";
     phases ABC;
     nominal_voltage 8366;
}

object node {
     name "P100";
     phases ABC;
     nominal_voltage 8366;
}

object node {
     name "P101";
     phases ABC;
     nominal_voltage 8366;
}

object node {
     name "P102";
     phases ABC;
     nominal_voltage 8366;
}

object node {
     name "P103";
     phases ABC;
     nominal_voltage 8366;
}

object node {
     name "P104";
     phases ABC;
     nominal_voltage 8366;
}

object node {
     name "P105";
     phases ABC;
     nominal_voltage 8366;
}

object node {
     name "P106";
     phases ABC;
     nominal_voltage 8366;
}

object node {
     name "P107";
     phases ABC;
     nominal_voltage 8366;
}

object node {
     name "P108";
     phases ABC;
     nominal_voltage 8366;
}

object node {
     name "P109";
     phases ABC;
     nominal_voltage 8366;
}

object node {
     name "P110";
     phases ABC;
     nominal_voltage 8366;
}

object node {
     name "P111";
     phases ABC;
     nominal_voltage 8366;
}

object node {
     name "P112";
     phases ABC;
     nominal_voltage 8366;
}

object node {
     name "P113";
     phases ABC;
     nominal_voltage 8366;
}

object node {
     name "P114";
     phases ABC;
     nominal_voltage 8366;
}

object node {
     name "P115";
     phases ABC;
     nominal_voltage 8366;
}

object node {
     name "P116";
     phases ABC;
     nominal_voltage 8366;
}

object node {
     name "P117";
     phases ABC;
     nominal_voltage 8366;
}

object node {
     name "P118";
     phases ABC;
     nominal_voltage 8366;
}

object node {
     name "P119";
     phases ABC;
     nominal_voltage 8366;
}

object node {
     name "P120";
     phases ABC;
     nominal_voltage 8366;
}

object node {
     name "P121";
     phases ABC;
     nominal_voltage 8366;
}

object node {
     name "P122";
     phases ABC;
     nominal_voltage 8366;
}

object node {
     name "P123";
     phases ABC;
     nominal_voltage 8366;
}

object node {
     name "P124";
     phases ABC;
     nominal_voltage 8366;
}

object node {
     name "P125";
     phases ABC;
     nominal_voltage 8366;
}

object node {
     name "P126";
     phases ABC;
     nominal_voltage 8366;
}

object node {
     name "P127";
     phases ABC;
     nominal_voltage 8366;
}

object node {
     name "P128";
     phases ABC;
     nominal_voltage 8366;
}

object node {
     name "P129";
     phases ABC;
     nominal_voltage 8366;
}

object node {
     name "P130";
     phases ABC;
     nominal_voltage 8366;
}

object node {
     name "P131";
     phases ABC;
     nominal_voltage 8366;
}

object node {
     name "P132";
     phases ABC;
     nominal_voltage 8366;
}

object node {
     name "P133";
     phases ABC;
     nominal_voltage 8366;
}

object node {
     name "P134";
     phases ABC;
     nominal_voltage 8366;
}

object node {
     name "P135";
     phases ABC;
     nominal_voltage 8366;
}

object node {
     name "P136";
     phases ABC;
     nominal_voltage 8366;
}

object node {
     name "P137";
     phases ABC;
     nominal_voltage 8366;
}

object node {
     name "P138";
     phases ABC;
     nominal_voltage 8366;
}

object node {
     name "P139";
     phases ABC;
     nominal_voltage 8366;
}

object node {
     name "P140";
     phases ABC;
     nominal_voltage 8366;
}

object node {
     name "P141";
     phases ABC;
     nominal_voltage 8366;
}

object node {
     name "P142";
     phases ABC;
     nominal_voltage 8366;
}

object node {
     name "P143";
     phases ABC;
     nominal_voltage 8366;
}

object node {
     name "P144";
     phases ABC;
     nominal_voltage 8366;
}

object node {
     name "P145";
     phases ABC;
     nominal_voltage 8366;
}

object node {
     name "P146";
     phases ABC;
     nominal_voltage 8366;
}

object node {
     name "P147";
     phases ABC;
     nominal_voltage 8366;
}

object node {
     name "P148";
     phases ABC;
     nominal_voltage 8366;
}

object node {
     name "P149";
     phases ABC;
     nominal_voltage 8366;
}

object node {
     name "P150";
     phases ABC;
     nominal_voltage 8366;
}

object load {
     name "S1";
     phases ABCN;
     nominal_voltage 120;
     constant_power_A 16110.00+5295.10j;
     constant_power_B 11280.00+4094.09j;
     constant_power_C 15300.00+6517.77j;
     constant_power_AB 32440.00+23486.15j;
     constant_power_BC 34690.00+29665.57j;
     constant_power_CA 35710.00+27713.98j;
}

object load {
     name "S2";
     phases ABCN;
     nominal_voltage 120;
     constant_power_A 12120.00+4790.13j;
     constant_power_B 12590.00+4975.89j;
     constant_power_C 11450.00+2325.02j;
     constant_power_AB 29830.00+23932.05j;
     constant_power_BC 34510.00+23190.86j;
     constant_power_CA 35700.00+28641.45j;
}

object load {
     name "S3";
     phases ABCN;
     nominal_voltage 120;
     constant_power_A 15590.00+7103.01j;
     constant_power_B 12000.00+3007.48j;
     constant_power_C 11900.00+1695.66j;
     constant_power_AB 35180.00+23641.10j;
     constant_power_BC 30710.00+23032.50j;
     constant_power_CA 32330.00+23406.52j;
}

object node {
     name "S4";
     phases ABCN;
     nominal_voltage 120;
}

object load {
     name "S5";
     phases ABCN;
     nominal_voltage 120;
     constant_power_A 16100.00+6363.13j;
     constant_power_B 15520.00+5101.18j;
     constant_power_C 13300.00+4827.26j;
     constant_power_AB 27990.00+18809.39j;
     constant_power_BC 34210.00+27446.05j;
     constant_power_CA 28450.00+23574.48j;
}

object load {
     name "S6";
     phases ABCN;
     nominal_voltage 120;
     constant_power_A 15480.00+3143.35j;
     constant_power_B 12080.00+3523.33j;
     constant_power_C 13380.00+0.00j;
     constant_power_AB 28930.00+21697.50j;
     constant_power_BC 31920.00+26449.82j;
     constant_power_CA 33130.00+26579.58j;
}

object load {
     name "S7";
     phases ABCN;
     nominal_voltage 120;
     constant_power_A 12660.00+5768.07j;
     constant_power_B 13140.00+4318.91j;
     constant_power_C 13760.00+1960.69j;
     constant_power_AB 30270.00+25082.58j;
     constant_power_BC 34890.00+27077.59j;
     constant_power_CA 31740.00+25464.41j;
}

object load {
     name "S8";
     phases ABCN;
     nominal_voltage 120;
     constant_power_A 13930.00+5505.49j;
     constant_power_B 13060.00+1860.95j;
     constant_power_C 14970.00+6820.53j;
     constant_power_AB 27750.00+22263.31j;
     constant_power_BC 31780.00+21356.29j;
     constant_power_CA 35140.00+23614.22j;
}

object node {
     name "S9";
     phases ABCN;
     nominal_voltage 120;
}

object load {
     name "S10";
     phases ABCN;
     nominal_voltage 120;
     constant_power_A 12640.00+3686.67j;
     constant_power_B 13590.00+3963.75j;
     constant_power_C 12040.00+5485.59j;
     constant_power_AB 35540.00+30392.46j;
     constant_power_BC 34640.00+24178.87j;
     constant_power_CA 26300.00+21792.93j;
}

object load {
     name "S11";
     phases ABCN;
     nominal_voltage 120;
     constant_power_A 11720.00+2379.85j;
     constant_power_B 14340.00+6533.50j;
     constant_power_C 12570.00+3666.25j;
     constant_power_AB 28590.00+19955.94j;
     constant_power_BC 35810.00+26857.50j;
     constant_power_CA 29030.00+21017.36j;
}

object load {
     name "S12";
     phases ABCN;
     nominal_voltage 120;
     constant_power_A 15650.00+7130.35j;
     constant_power_B 14770.00+0.00j;
     constant_power_C 11730.00+2939.82j;
     constant_power_AB 30470.00+20475.96j;
     constant_power_BC 34060.00+22888.46j;
     constant_power_CA 28340.00+21255.00j;
}

object load {
     name "S13";
     phases ABCN;
     nominal_voltage 120;
     constant_power_A 15740.00+5712.86j;
     constant_power_B 13470.00+4427.37j;
     constant_power_C 15210.00+5520.49j;
     constant_power_AB 30600.00+24549.81j;
     constant_power_BC 33970.00+21942.45j;
     constant_power_CA 33370.00+23292.40j;
}

object node {
     name "S14";
     phases ABCN;
     nominal_voltage 120;
}

object load {
     name "S15";
     phases ABCN;
     nominal_voltage 120;
     constant_power_A 16130.00+4042.56j;
     constant_power_B 12660.00+0.00j;
     constant_power_C 14310.00+2039.06j;
     constant_power_AB 28370.00+19064.76j;
     constant_power_BC 33630.00+22599.50j;
     constant_power_CA 30780.00+23887.88j;
}

object load {
     name "S16";
     phases ABCN;
     nominal_voltage 120;
     constant_power_A 13540.00+3393.44j;
     constant_power_B 13050.00+4289.33j;
     constant_power_C 13720.00+4979.70j;
     constant_power_AB 35730.00+25868.07j;
     constant_power_BC 30730.00+20650.69j;
     constant_power_CA 33050.00+23927.79j;
}

object load {
     name "S17";
     phases ABCN;
     nominal_voltage 120;
     constant_power_A 13450.00+3370.89j;
     constant_power_B 11680.00+2927.28j;
     constant_power_C 12860.00+6228.38j;
     constant_power_AB 33050.00+27386.17j;
     constant_power_BC 34360.00+28471.67j;
     constant_power_CA 27450.00+19873.46j;
}

object load {
     name "S18";
     phases ABCN;
     nominal_voltage 120;
     constant_power_A 16050.00+4681.25j;
     constant_power_B 14810.00+3711.74j;
     constant_power_C 15430.00+0.00j;
     constant_power_AB 32330.00+24247.50j;
     constant_power_BC 32970.00+23013.20j;
     constant_power_CA 29700.00+24610.26j;
}

object load {
     name "S19";
     phases ABCN;
     nominal_voltage 120;
     constant_power_A 11350.00+4485.81j;
     constant_power_B 14020.00+3513.74j;
     constant_power_C 15380.00+6078.56j;
     constant_power_AB 33610.00+26964.68j;
     constant_power_BC 36040.00+27970.09j;
     constant_power_CA 27900.00+19474.32j;
}

object load {
     name "S20";
     phases ABCN;
     nominal_voltage 120;
     constant_power_A 15800.00+2251.38j;
     constant_power_B 13980.00+6369.48j;
     constant_power_C 12900.00+5098.41j;
     constant_power_AB 28110.00+24038.60j;
     constant_power_BC 31400.00+25191.64j;
     constant_power_CA 34790.00+24283.57j;
}

object load {
     name "S21";
     phases ABCN;
     nominal_voltage 120;
     constant_power_A 16290.00+5354.26j;
     constant_power_B 13810.00+6292.02j;
     constant_power_C 13050.00+3270.64j;
     constant_power_AB 30120.00+20240.76j;
     constant_power_BC 31940.00+23955.00j;
     constant_power_CA 36380.00+29187.00j;
}

object load {
     name "S22";
     phases ABCN;
     nominal_voltage 120;
     constant_power_A 14730.00+6711.19j;
     constant_power_B 12070.00+4770.37j;
     constant_power_C 13300.00+2700.68j;
     constant_power_AB 36120.00+25211.92j;
     constant_power_BC 33910.00+26317.03j;
     constant_power_CA 34940.00+25296.12j;
}

object load {
     name "S23";
     phases ABCN;
     nominal_voltage 120;
     constant_power_A 41670.00+10443.49j;
     constant_power_B 44080.00+17421.53j;
     constant_power_C 34470.00+6999.43j;
     constant_power_AB 101570.00+73535.41j;
     constant_power_BC 113380.00+79139.73j;
     constant_power_CA 97230.00+80567.54j;
}

object load {
     name "S24";
     phases ABCN;
     nominal_voltage 120;
     constant_power_A 34330.00+12460.13j;
     constant_power_B 42830.00+14077.54j;
     constant_power_C 46080.00+19630.00j;
     constant_power_AB 84090.00+71910.57j;
     constant_power_BC 98490.00+73867.50j;
     constant_power_CA 85750.00+66549.26j;
}

object load {
     name "S25";
     phases ABCN;
     nominal_voltage 120;
     constant_power_A 36480.00+17668.07j;
     constant_power_B 47230.00+9590.46j;
     constant_power_C 46740.00+6660.09j;
     constant_power_AB 101510.00+70854.42j;
     constant_power_BC 109370.00+87745.52j;
     constant_power_CA 97870.00+81097.86j;
}

object load {
     name "S26";
     phases ABCN;
     nominal_voltage 120;
     constant_power_A 16410.00+6990.63j;
     constant_power_B 12290.00+5235.52j;
     constant_power_C 14770.00+4854.66j;
     constant_power_AB 26870.00+20853.39j;
     constant_power_BC 31650.00+25392.21j;
     constant_power_CA 37400.00+28050.00j;
}

object node {
     name "S27";
     phases ABCN;
     nominal_voltage 120;
}

object node {
     name "S28";
     phases ABCN;
     nominal_voltage 120;
}

object node {
     name "S29";
     phases ABCN;
     nominal_voltage 120;
}

object node {
     name "S30";
     phases ABCN;
     nominal_voltage 120;
}

object load {
     name "S31";
     phases ABCN;
     nominal_voltage 120;
     constant_power_A 13350.00+2710.83j;
     constant_power_B 14570.00+6206.79j;
     constant_power_C 13730.00+5848.96j;
     constant_power_AB 37070.00+27802.50j;
     constant_power_BC 33430.00+21593.65j;
     constant_power_CA 32150.00+26640.40j;
}

object load {
     name "S32";
     phases ABCN;
     nominal_voltage 120;
     constant_power_A 11650.00+4228.39j;
     constant_power_B 12160.00+5180.14j;
     constant_power_C 13060.00+5563.54j;
     constant_power_AB 30790.00+21491.55j;
     constant_power_BC 30400.00+23592.97j;
     constant_power_CA 28330.00+21247.50j;
}

object node {
     name "S33";
     phases ABCN;
     nominal_voltage 120;
}

object node {
     name "S34";
     phases ABCN;
     nominal_voltage 120;
}

object node {
     name "S35";
     phases ABCN;
     nominal_voltage 120;
}

object node {
     name "S36";
     phases ABCN;
     nominal_voltage 120;
}

object load {
     name "S37";
     phases ABCN;
     nominal_voltage 120;
     constant_power_A 14790.00+6300.51j;
     constant_power_B 12710.00+3185.43j;
     constant_power_C 14390.00+2050.46j;
     constant_power_AB 37320.00+27019.21j;
     constant_power_BC 36930.00+24817.11j;
     constant_power_CA 34430.00+28529.68j;
}

object load {
     name "S38";
     phases ABCN;
     nominal_voltage 120;
     constant_power_A 50330.00+21440.49j;
     constant_power_B 55550.00+21954.76j;
     constant_power_C 51740.00+10506.26j;
     constant_power_AB 111430.00+86479.11j;
     constant_power_BC 126130.00+91316.54j;
     constant_power_CA 108740.00+75900.99j;
}

object load {
     name "S39";
     phases ABCN;
     nominal_voltage 120;
     constant_power_A 55530.00+20154.70j;
     constant_power_B 41970.00+0.00j;
     constant_power_C 54850.00+18028.32j;
     constant_power_AB 131700.00+109130.36j;
     constant_power_BC 102860.00+85232.72j;
     constant_power_CA 100920.00+70442.59j;
}

object load {
     name "S40";
     phases ABCN;
     nominal_voltage 120;
     constant_power_A 50670.00+18390.75j;
     constant_power_B 51210.00+12834.44j;
     constant_power_C 46990.00+21409.28j;
     constant_power_AB 133470.00+93162.63j;
     constant_power_BC 137920.00+92682.80j;
     constant_power_CA 138710.00+96820.18j;
}

object load {
     name "S41";
     phases ABCN;
     nominal_voltage 120;
     constant_power_A 14480.00+6597.28j;
     constant_power_B 15580.00+6157.61j;
     constant_power_C 12830.00+2605.24j;
     constant_power_AB 33870.00+23641.41j;
     constant_power_BC 32610.00+21063.98j;
     constant_power_CA 30700.00+20630.53j;
}

object load {
     name "S42";
     phases ABCN;
     nominal_voltage 120;
     constant_power_A 28950.00+10507.45j;
     constant_power_B 23630.00+5922.24j;
     constant_power_C 28130.00+4008.31j;
     constant_power_AB 72320.00+52358.78j;
     constant_power_BC 60670.00+50272.89j;
     constant_power_CA 69800.00+46905.89j;
}

object load {
     name "S43";
     phases ABCN;
     nominal_voltage 120;
     constant_power_A 24590.00+6162.83j;
     constant_power_B 25810.00+0.00j;
     constant_power_C 26970.00+8864.61j;
     constant_power_AB 64920.00+43626.51j;
     constant_power_BC 65390.00+54184.01j;
     constant_power_CA 63610.00+42746.18j;
}

object node {
     name "S44";
     phases ABCN;
     nominal_voltage 120;
}

object node {
     name "S45";
     phases ABCN;
     nominal_voltage 120;
}

object load {
     name "S46";
     phases ABCN;
     nominal_voltage 120;
     constant_power_A 46340.00+13515.83j;
     constant_power_B 47650.00+13897.92j;
     constant_power_C 45080.00+14817.08j;
     constant_power_AB 119880.00+93037.02j;
     constant_power_BC 117600.00+85140.93j;
     constant_power_CA 112170.00+78295.14j;
}

object load {
     name "S47";
     phases ABCN;
     nominal_voltage 120;
     constant_power_A 54560.00+24858.27j;
     constant_power_B 48850.00+9919.42j;
     constant_power_C 49340.00+16217.27j;
     constant_power_AB 119480.00+92726.59j;
     constant_power_BC 136410.00+105865.70j;
     constant_power_CA 126020.00+87962.50j;
}

object load {
     name "S48";
     phases ABCN;
     nominal_voltage 120;
     constant_power_A 60610.00+27614.73j;
     constant_power_B 51620.00+12937.19j;
     constant_power_C 53050.00+13295.58j;
     constant_power_AB 115730.00+83787.07j;
     constant_power_BC 123570.00+83039.54j;
     constant_power_CA 131510.00+98632.50j;
}

object node {
     name "S49";
     phases ABCN;
     nominal_voltage 120;
}

object node {
     name "S50";
     phases ABCN;
     nominal_voltage 120;
}

object load {
     name "S51";
     phases ABCN;
     nominal_voltage 120;
     constant_power_A 46640.00+18433.31j;
     constant_power_B 44820.00+17714.00j;
     constant_power_C 54850.00+21678.11j;
     constant_power_AB 109390.00+82042.50j;
     constant_power_BC 135190.00+115609.34j;
     constant_power_CA 117660.00+79068.00j;
}

object load {
     name "S52";
     phases ABCN;
     nominal_voltage 120;
     constant_power_A 45060.00+19195.48j;
     constant_power_B 44960.00+14777.64j;
     constant_power_C 43750.00+15879.13j;
     constant_power_AB 118950.00+83027.61j;
     constant_power_BC 115350.00+89521.36j;
     constant_power_CA 118190.00+85568.08j;
}

object load {
     name "S53";
     phases ABCN;
     nominal_voltage 120;
     constant_power_A 49150.00+7003.50j;
     constant_power_B 51840.00+22083.75j;
     constant_power_C 46560.00+6634.44j;
     constant_power_AB 107230.00+72059.00j;
     constant_power_BC 98130.00+68495.16j;
     constant_power_CA 108480.00+84189.66j;
}

object node {
     name "S54";
     phases ABCN;
     nominal_voltage 120;
}

object node {
     name "S55";
     phases ABCN;
     nominal_voltage 120;
}

object load {
     name "S56";
     phases ABCN;
     nominal_voltage 120;
     constant_power_A 41450.00+15044.34j;
     constant_power_B 52450.00+22343.61j;
     constant_power_C 42660.00+18173.08j;
     constant_power_AB 111580.00+89518.56j;
     constant_power_BC 125950.00+84638.91j;
     constant_power_CA 114430.00+73914.48j;
}

object load {
     name "S57";
     phases ABCN;
     nominal_voltage 120;
     constant_power_A 51440.00+12892.08j;
     constant_power_B 51900.00+0.00j;
     constant_power_C 52650.00+17305.22j;
     constant_power_AB 136780.00+102585.00j;
     constant_power_BC 130060.00+104344.72j;
     constant_power_CA 132480.00+99360.00j;
}

object load {
     name "S58";
     phases ABCN;
     nominal_voltage 120;
     constant_power_A 58400.00+24878.30j;
     constant_power_B 45120.00+11308.14j;
     constant_power_C 49060.00+14309.17j;
     constant_power_AB 104870.00+70473.07j;
     constant_power_BC 109530.00+79298.35j;
     constant_power_CA 106220.00+88016.91j;
}

object node {
     name "S59";
     phases ABCN;
     nominal_voltage 120;
}

object node {
     name "S60";
     phases ABCN;
     nominal_voltage 120;
}

object load {
     name "S61";
     phases ABCN;
     nominal_voltage 120;
     constant_power_A 24390.00+8852.39j;
     constant_power_B 22950.00+6693.75j;
     constant_power_C 21860.00+6375.83j;
     constant_power_AB 59210.00+39789.36j;
     constant_power_BC 59660.00+47864.11j;
     constant_power_CA 70380.00+49125.54j;
}

object load {
     name "S62";
     phases ABCN;
     nominal_voltage 120;
     constant_power_A 12680.00+4602.23j;
     constant_power_B 13220.00+4798.22j;
     constant_power_C 11860.00+5403.58j;
     constant_power_AB 32280.00+22531.58j;
     constant_power_BC 34950.00+23486.54j;
     constant_power_CA 29750.00+23088.52j;
}

object load {
     name "S63";
     phases ABCN;
     nominal_voltage 120;
     constant_power_A 13060.00+4740.15j;
     constant_power_B 11520.00+4907.50j;
     constant_power_C 15280.00+6961.77j;
     constant_power_AB 35060.00+29051.71j;
     constant_power_BC 31530.00+20366.37j;
     constant_power_CA 32360.00+22587.42j;
}

object load {
     name "S64";
     phases ABCN;
     nominal_voltage 120;
     constant_power_A 54280.00+23123.18j;
     constant_power_B 48220.00+9791.49j;
     constant_power_C 43590.00+8851.33j;
     constant_power_AB 125890.00+91142.79j;
     constant_power_BC 120310.00+93370.74j;
     constant_power_CA 122470.00+85484.59j;
}

object load {
     name "S65";
     phases ABCN;
     nominal_voltage 120;
     constant_power_A 45340.00+14902.54j;
     constant_power_B 48490.00+6909.45j;
     constant_power_C 54020.00+7697.43j;
     constant_power_AB 105360.00+90099.86j;
     constant_power_BC 122000.00+91500.00j;
     constant_power_CA 124940.00+90455.00j;
}

object load {
     name "S66";
     phases ABCN;
     nominal_voltage 120;
     constant_power_A 42670.00+12445.42j;
     constant_power_B 44750.00+9086.88j;
     constant_power_C 53420.00+15580.83j;
     constant_power_AB 125460.00+103959.72j;
     constant_power_BC 126260.00+97988.44j;
     constant_power_CA 115650.00+77717.27j;
}

object load {
     name "S67";
     phases ABCN;
     nominal_voltage 120;
     constant_power_A 15890.00+5767.30j;
     constant_power_B 12320.00+5248.30j;
     constant_power_C 13710.00+5418.54j;
     constant_power_AB 34860.00+25238.20j;
     constant_power_BC 31690.00+21295.81j;
     constant_power_CA 35290.00+25549.52j;
}

object node {
     name "S68";
     phases ABCN;
     nominal_voltage 120;
}

object node {
     name "S69";
     phases ABCN;
     nominal_voltage 120;
}

object node {
     name "S70";
     phases ABCN;
     nominal_voltage 120;
}

object node {
     name "S71";
     phases ABCN;
     nominal_voltage 120;
}

object load {
     name "S72";
     phases ABCN;
     nominal_voltage 120;
     constant_power_A 11810.00+2959.87j;